<?xml version="1.0" encoding="UTF-8"?>

<sumoConfiguration xmlns:xsi="http://www.w3.org/2001/XMLSchema-instance"
xsi:noNamespaceSchemaLocation="http://sumo.dlr.de/xsd/sumoConfiguration.xsd">

    <input>
        <net-file value="my_intersection.net.xml"/>
        <route-files value="my_intersection.rou.xml"/>
    </input>

    <time>
        <begin value="0"/>
        <end value="3600"/> <!-- 1 hour simulation -->
    </time>

</sumoConfiguration>
