<?xml version="1.0" encoding="UTF-8"?>

<routes xmlns:xsi="http://www.w3.org/2001/XMLSchema-instance"
xsi:noNamespaceSchemaLocation="http://sumo.dlr.de/xsd/routes_file.xsd">

    <vType id="car" accel="2.6" decel="4.5" sigma="0.5" length="5" maxSpeed="50"/>

    <flow id="flow1" begin="0.00" end="3600.00" vehsPerHour="500">
        <route edges="E1_J0 J0_E2"/>
    </flow>

    <flow id="flow2" begin="0.00" end="3600.00" vehsPerHour="500">
        <route edges="E3_J0 J0_E4"/>
    </flow>

</routes>
